modelo_bdgd2opendss/sub__5001462/5002409/SegmentosMT_2023056072_5002409_------1-----.dss
New "Line.SMT_53107969" phases=3 bus1="94308185002409.1.2.3" bus2="82285765002409B.1.2.3" linecode="1-31M_3" length=0.011514000 units=km
New "Line.SMT_53108860" phases=3 bus1="82222315002409.1.2.3" bus2="82223055002409.1.2.3" linecode="35-14M_3" length=0.036293000 units=km
New "Line.SMT_53108861" phases=3 bus1="82222325002409.1.2.3" bus2="82222315002409.1.2.3" linecode="35-14M_3" length=0.038080000 units=km
New "Line.SMT_53108862" phases=3 bus1="82222335002409.1.2.3" bus2="82222325002409.1.2.3" linecode="35-14M_3" length=0.038647000 units=km
New "Line.SMT_53108863" phases=3 bus1="82222385002409.1.2.3" bus2="82222335002409.1.2.3" linecode="35-14M_3" length=0.037524000 units=km
New "Line.SMT_53108864" phases=3 bus1="82222395002409.1.2.3" bus2="82222385002409.1.2.3" linecode="35-14M_3" length=0.037284000 units=km
New "Line.SMT_53108865" phases=3 bus1="82222435002409.1.2.3" bus2="82222395002409.1.2.3" linecode="35-14M_3" length=0.032863000 units=km
New "Line.SMT_53108866" phases=3 bus1="82222445002409.1.2.3" bus2="82222435002409.1.2.3" linecode="35-14M_3" length=0.036887000 units=km
New "Line.SMT_53108867" phases=3 bus1="82222455002409.1.2.3" bus2="82222445002409.1.2.3" linecode="35-14M_3" length=0.035139000 units=km
New "Line.SMT_53108868" phases=3 bus1="82221825002409.1.2.3" bus2="82222455002409.1.2.3" linecode="35-14M_3" length=0.017704000 units=km
New "Line.SMT_53108869" phases=3 bus1="82311765002409.1.2.3" bus2="82221825002409.1.2.3" linecode="35-14M_3" length=0.027672000 units=km
New "Line.SMT_53108900" phases=3 bus1="93632095002409.1.2.3" bus2="82308135002409.1.2.3" linecode="35-14M_3" length=0.012021000 units=km
New "Line.SMT_53117789" phases=3 bus1="82358245002409.1.2.3" bus2="82358255002409.1.2.3" linecode="29-31M_3" length=0.007460000 units=km
New "Line.SMT_53117790" phases=3 bus1="82357745002409.1.2.3" bus2="82358245002409.1.2.3" linecode="29-31M_3" length=0.038938000 units=km
New "Line.SMT_53117791" phases=3 bus1="80435895002409.1.2.3" bus2="82357295002409.1.2.3" linecode="1-31M_3" length=0.036270000 units=km
New "Line.SMT_53117792" phases=3 bus1="80435425002409.1.2.3" bus2="80435435002409.1.2.3" linecode="36-14M_3" length=0.053760000 units=km
New "Line.SMT_53117793" phases=3 bus1="82358105002409.1.2.3" bus2="82358285002409.1.2.3" linecode="33-31M_3" length=0.025445000 units=km
New "Line.SMT_53117794" phases=3 bus1="82357195002409.1.2.3" bus2="82357555002409.1.2.3" linecode="33-31M_3" length=0.058195000 units=km
New "Line.SMT_53117795" phases=3 bus1="82357195002409.1.2.3" bus2="82357745002409.1.2.3" linecode="33-31M_3" length=0.021955000 units=km
New "Line.SMT_53117796" phases=3 bus1="82358505002409.1.2.3" bus2="82357185002409.1.2.3" linecode="33-31M_3" length=0.043499000 units=km
New "Line.SMT_53117797" phases=3 bus1="82357265002409B.1.2.3" bus2="82357255002409.1.2.3" linecode="29-31M_3" length=0.022497000 units=km
New "Line.SMT_53117798" phases=3 bus1="82357305002409.1.2.3" bus2="82357285002409.1.2.3" linecode="1-31M_3" length=0.015874000 units=km
New "Line.SMT_53117799" phases=3 bus1="82357285002409.1.2.3" bus2="82357295002409.1.2.3" linecode="1-31M_3" length=0.022426000 units=km
New "Line.SMT_53117800" phases=3 bus1="82357305002409.1.2.3" bus2="82357265002409.1.2.3" linecode="29-31M_3" length=0.020680000 units=km
New "Line.SMT_53117801" phases=3 bus1="82357315002409.1.2.3" bus2="82357305002409.1.2.3" linecode="29-31M_3" length=0.017858000 units=km
New "Line.SMT_53117802" phases=3 bus1="82357325002409.1.2.3" bus2="82357315002409B.1.2.3" linecode="29-31M_3" length=0.025287000 units=km
New "Line.SMT_53117803" phases=3 bus1="82357335002409.1.2.3" bus2="82357325002409.1.2.3" linecode="29-31M_3" length=0.025297000 units=km
New "Line.SMT_53117804" phases=3 bus1="82357345002409.1.2.3" bus2="82357335002409.1.2.3" linecode="29-31M_3" length=0.051586000 units=km
New "Line.SMT_53117805" phases=3 bus1="82357345002409.1.2.3" bus2="82357365002409.1.2.3" linecode="29-31M_3" length=0.046647000 units=km
New "Line.SMT_53117806" phases=3 bus1="82357365002409.1.2.3" bus2="82357375002409.1.2.3" linecode="29-31M_3" length=0.037543000 units=km
New "Line.SMT_53117807" phases=3 bus1="82357375002409.1.2.3" bus2="82357385002409.1.2.3" linecode="29-31M_3" length=0.031690000 units=km
New "Line.SMT_53117808" phases=3 bus1="82357405002409.1.2.3" bus2="82357305002409.1.2.3" linecode="1-31M_3" length=0.037890000 units=km
New "Line.SMT_53117809" phases=3 bus1="82357415002409.1.2.3" bus2="82357405002409.1.2.3" linecode="1-31M_3" length=0.031583000 units=km
New "Line.SMT_53117810" phases=3 bus1="82357425002409.1.2.3" bus2="82357415002409.1.2.3" linecode="1-31M_3" length=0.047439000 units=km
New "Line.SMT_53117811" phases=3 bus1="82357445002409.1.2.3" bus2="82357465002409.1.2.3" linecode="1-31M_3" length=0.032006000 units=km
New "Line.SMT_53117812" phases=3 bus1="82357425002409.1.2.3" bus2="82357445002409.1.2.3" linecode="1-31M_3" length=0.019021000 units=km
New "Line.SMT_53117813" phases=3 bus1="82357465002409.1.2.3" bus2="82357475002409.1.2.3" linecode="1-31M_3" length=0.023784000 units=km
New "Line.SMT_53117814" phases=3 bus1="82357475002409.1.2.3" bus2="82357495002409.1.2.3" linecode="1-31M_3" length=0.052630000 units=km
New "Line.SMT_53117815" phases=3 bus1="82357495002409.1.2.3" bus2="82357505002409.1.2.3" linecode="1-31M_3" length=0.034297000 units=km
New "Line.SMT_53117816" phases=3 bus1="82357505002409.1.2.3" bus2="80434555002409.1.2.3" linecode="1-31M_3" length=0.022174000 units=km
New "Line.SMT_53117817" phases=3 bus1="80434555002409.1.2.3" bus2="80434565002409.1.2.3" linecode="1-31M_3" length=0.042109000 units=km
New "Line.SMT_53117818" phases=3 bus1="80434565002409.1.2.3" bus2="80434585002409.1.2.3" linecode="1-31M_3" length=0.038436000 units=km
New "Line.SMT_53117819" phases=3 bus1="80434585002409.1.2.3" bus2="80434595002409.1.2.3" linecode="1-31M_3" length=0.041622000 units=km
New "Line.SMT_53117820" phases=3 bus1="80434595002409.1.2.3" bus2="80434605002409.1.2.3" linecode="1-31M_3" length=0.038242000 units=km
New "Line.SMT_53117821" phases=3 bus1="80434615002409.1.2.3" bus2="80434565002409B.1.2.3" linecode="33-31M_3" length=0.036653000 units=km
New "Line.SMT_53117822" phases=3 bus1="80434615002409.1.2.3" bus2="82357535002409.1.2.3" linecode="33-31M_3" length=0.025697000 units=km
New "Line.SMT_53117823" phases=3 bus1="82357535002409.1.2.3" bus2="82357545002409.1.2.3" linecode="33-31M_3" length=0.041360000 units=km
New "Line.SMT_53117824" phases=3 bus1="82357545002409.1.2.3" bus2="82357555002409.1.2.3" linecode="33-31M_3" length=0.014641000 units=km
New "Line.SMT_53117825" phases=3 bus1="82357555002409.1.2.3" bus2="82357565002409.1.2.3" linecode="33-31M_3" length=0.011013000 units=km
New "Line.SMT_53117826" phases=3 bus1="82357575002409.1.2.3" bus2="82357555002409.1.2.3" linecode="33-31M_3" length=0.027621000 units=km
New "Line.SMT_53117827" phases=3 bus1="80434955002409B.1.2.3" bus2="80434965002409.1.2.3" linecode="1-31M_3" length=0.026899000 units=km
New "Line.SMT_53117828" phases=3 bus1="82357955002409.1.2.3" bus2="80434955002409.1.2.3" linecode="1-31M_3" length=0.034495000 units=km
New "Line.SMT_53117829" phases=3 bus1="80434975002409.1.2.3" bus2="80434965002409.1.2.3" linecode="1-31M_3" length=0.044754000 units=km
New "Line.SMT_53117830" phases=3 bus1="80434995002409.1.2.3" bus2="80434975002409.1.2.3" linecode="1-31M_3" length=0.034780000 units=km
New "Line.SMT_53117831" phases=3 bus1="80435005002409.1.2.3" bus2="80434995002409.1.2.3" linecode="1-31M_3" length=0.030194000 units=km
New "Line.SMT_53117832" phases=3 bus1="80435015002409.1.2.3" bus2="80435005002409.1.2.3" linecode="1-31M_3" length=0.030194000 units=km
New "Line.SMT_53117833" phases=3 bus1="80435025002409.1.2.3" bus2="80435015002409.1.2.3" linecode="1-31M_3" length=0.034296000 units=km
New "Line.SMT_53117834" phases=3 bus1="80435035002409.1.2.3" bus2="80435025002409.1.2.3" linecode="1-31M_3" length=0.037051000 units=km
New "Line.SMT_53117835" phases=3 bus1="80435045002409.1.2.3" bus2="80435035002409.1.2.3" linecode="1-31M_3" length=0.046194000 units=km
New "Line.SMT_53117836" phases=3 bus1="80434605002409.1.2.3" bus2="80435045002409.1.2.3" linecode="1-31M_3" length=0.034950000 units=km
New "Line.SMT_53117837" phases=3 bus1="82357565002409.1.2.3" bus2="82358025002409.1.2.3" linecode="33-31M_3" length=0.033516000 units=km
New "Line.SMT_53117838" phases=3 bus1="82358075002409B.1.2.3" bus2="82358085002409.1.2.3" linecode="1-31M_3" length=0.029803000 units=km
New "Line.SMT_53117839" phases=3 bus1="82358095002409.1.2.3" bus2="82358085002409B.1.2.3" linecode="33-31M_3" length=0.006859000 units=km
New "Line.SMT_53117840" phases=3 bus1="82358105002409.1.2.3" bus2="82358095002409.1.2.3" linecode="33-31M_3" length=0.040452000 units=km
New "Line.SMT_53117841" phases=3 bus1="82358085002409.1.2.3" bus2="82358115002409.1.2.3" linecode="1-31M_3" length=0.028282000 units=km
New "Line.SMT_53117842" phases=3 bus1="82358115002409.1.2.3" bus2="82358125002409.1.2.3" linecode="1-31M_3" length=0.030506000 units=km
New "Line.SMT_53117843" phases=3 bus1="82358125002409.1.2.3" bus2="82358135002409.1.2.3" linecode="1-31M_3" length=0.031749000 units=km
New "Line.SMT_53117844" phases=3 bus1="82358135002409.1.2.3" bus2="82358155002409.1.2.3" linecode="1-31M_3" length=0.045261000 units=km
New "Line.SMT_53117845" phases=3 bus1="82358075002409.1.2.3" bus2="80435425002409.1.2.3" linecode="35-14M_3" length=0.031514000 units=km
New "Line.SMT_53117846" phases=3 bus1="82358155002409.1.2.3" bus2="82358195002409.1.2.3" linecode="1-31M_3" length=0.037221000 units=km
New "Line.SMT_53117847" phases=3 bus1="82358195002409.1.2.3" bus2="82358205002409.1.2.3" linecode="1-31M_3" length=0.047623000 units=km
New "Line.SMT_53117848" phases=3 bus1="82358205002409.1.2.3" bus2="82357955002409.1.2.3" linecode="1-31M_3" length=0.034591000 units=km
New "Line.SMT_53117849" phases=3 bus1="82360555002409.1.2.3" bus2="82360095002409.1.2.3" linecode="1-31M_3" length=0.044760000 units=km
New "Line.SMT_53117850" phases=3 bus1="82360055002409.1.2.3" bus2="82360555002409.1.2.3" linecode="1-31M_3" length=0.029698000 units=km
New "Line.SMT_53117851" phases=3 bus1="80436485002409.1.2.3" bus2="80435895002409.1.2.3" linecode="1-31M_3" length=0.031582000 units=km
New "Line.SMT_53117852" phases=3 bus1="82358765002409.1.2.3" bus2="82358775002409.1.2.3" linecode="1-31M_3" length=0.033300000 units=km
New "Line.SMT_53117853" phases=3 bus1="82358785002409.1.2.3" bus2="82358765002409.1.2.3" linecode="1-31M_3" length=0.038433000 units=km
New "Line.SMT_53117854" phases=3 bus1="82358795002409.1.2.3" bus2="82358785002409.1.2.3" linecode="1-31M_3" length=0.017383000 units=km
New "Line.SMT_53117855" phases=3 bus1="80437705002409.1.2.3" bus2="80436485002409.1.2.3" linecode="1-31M_3" length=0.036417000 units=km
New "Line.SMT_53117856" phases=3 bus1="80437715002409.1.2.3" bus2="80437705002409.1.2.3" linecode="1-31M_3" length=0.035716000 units=km
New "Line.SMT_53117857" phases=3 bus1="80437725002409.1.2.3" bus2="80437715002409.1.2.3" linecode="1-31M_3" length=0.026060000 units=km
New "Line.SMT_53117858" phases=3 bus1="80437735002409.1.2.3" bus2="80437725002409.1.2.3" linecode="1-31M_3" length=0.037999000 units=km
New "Line.SMT_53117859" phases=3 bus1="80438495002409.1.2.3" bus2="80437735002409.1.2.3" linecode="1-31M_3" length=0.008736000 units=km
New "Line.SMT_53117860" phases=3 bus1="82358795002409.1.2.3" bus2="80438495002409.1.2.3" linecode="1-31M_3" length=0.040165000 units=km
New "Line.SMT_53117861" phases=3 bus1="82360315002409.1.2.3" bus2="82360325002409.1.2.3" linecode="33-31M_3" length=0.042029000 units=km
New "Line.SMT_53117862" phases=3 bus1="82360325002409.1.2.3" bus2="82360335002409.1.2.3" linecode="33-31M_3" length=0.041725000 units=km
New "Line.SMT_53117863" phases=3 bus1="82360345002409.1.2.3" bus2="82360355002409.1.2.3" linecode="29-31M_3" length=0.039983000 units=km
New "Line.SMT_53117864" phases=3 bus1="82360355002409.1.2.3" bus2="82360365002409.1.2.3" linecode="29-31M_3" length=0.038870000 units=km
New "Line.SMT_53117865" phases=3 bus1="82360365002409.1.2.3" bus2="82360375002409.1.2.3" linecode="29-31M_3" length=0.042556000 units=km
New "Line.SMT_53117866" phases=3 bus1="82360375002409.1.2.3" bus2="82360385002409.1.2.3" linecode="29-31M_3" length=0.028078000 units=km
New "Line.SMT_53117867" phases=3 bus1="82360385002409.1.2.3" bus2="82360395002409.1.2.3" linecode="29-31M_3" length=0.031756000 units=km
New "Line.SMT_53117868" phases=3 bus1="82360395002409.1.2.3" bus2="82360405002409.1.2.3" linecode="29-31M_3" length=0.009641000 units=km
New "Line.SMT_53117869" phases=3 bus1="82360415002409.1.2.3" bus2="82360395002409.1.2.3" linecode="29-31M_3" length=0.019897000 units=km
New "Line.SMT_53117870" phases=3 bus1="82360395002409.1.2.3" bus2="82359135002409.1.2.3" linecode="29-31M_3" length=0.015953000 units=km
New "Line.SMT_53117871" phases=3 bus1="82360405002409.1.2.3" bus2="82359145002409.1.2.3" linecode="29-31M_3" length=0.034601000 units=km
New "Line.SMT_53117872" phases=3 bus1="82359145002409.1.2.3" bus2="82359155002409.1.2.3" linecode="29-31M_3" length=0.036869000 units=km
New "Line.SMT_53117873" phases=3 bus1="82359155002409.1.2.3" bus2="82359165002409.1.2.3" linecode="29-31M_3" length=0.036022000 units=km
New "Line.SMT_53117874" phases=3 bus1="82359165002409.1.2.3" bus2="82359175002409.1.2.3" linecode="29-31M_3" length=0.006859000 units=km
New "Line.SMT_53117875" phases=3 bus1="82359175002409.1.2.3" bus2="82359185002409.1.2.3" linecode="29-31M_3" length=0.029550000 units=km
New "Line.SMT_53117876" phases=3 bus1="82359245002409.1.2.3" bus2="82359235002409.1.2.3" linecode="29-31M_3" length=0.033182000 units=km
New "Line.SMT_53117877" phases=3 bus1="82359255002409.1.2.3" bus2="82359245002409.1.2.3" linecode="29-31M_3" length=0.039449000 units=km
New "Line.SMT_53117878" phases=3 bus1="82359175002409.1.2.3" bus2="82359255002409.1.2.3" linecode="29-31M_3" length=0.016168000 units=km
New "Line.SMT_53117879" phases=3 bus1="82359265002409.1.2.3" bus2="82359175002409.1.2.3" linecode="29-31M_3" length=0.017413000 units=km
New "Line.SMT_53117880" phases=3 bus1="82359275002409.1.2.3" bus2="82359265002409.1.2.3" linecode="29-31M_3" length=0.030109000 units=km
New "Line.SMT_53117881" phases=3 bus1="82359405002409.1.2.3" bus2="82359395002409.1.2.3" linecode="33-31M_3" length=0.028078000 units=km
New "Line.SMT_53117882" phases=3 bus1="82359415002409.1.2.3" bus2="82359405002409.1.2.3" linecode="33-31M_3" length=0.030969000 units=km
New "Line.SMT_53117883" phases=3 bus1="82359235002409.1.2.3" bus2="82359515002409.1.2.3" linecode="29-31M_3" length=0.025582000 units=km
New "Line.SMT_53117884" phases=3 bus1="82359605002409.1.2.3" bus2="82359615002409.1.2.3" linecode="33-31M_3" length=0.030965000 units=km
New "Line.SMT_53117885" phases=3 bus1="82359625002409.1.2.3" bus2="82359635002409.1.2.3" linecode="33-31M_3" length=0.020451000 units=km
New "Line.SMT_53117886" phases=3 bus1="82359615002409.1.2.3" bus2="82359625002409.1.2.3" linecode="33-31M_3" length=0.028641000 units=km
New "Line.SMT_53117887" phases=3 bus1="82359745002409.1.2.3" bus2="82359735002409.1.2.3" linecode="33-31M_3" length=0.014819000 units=km
New "Line.SMT_53117888" phases=3 bus1="82360335002409.1.2.3" bus2="82359745002409.1.2.3" linecode="33-31M_3" length=0.026125000 units=km
New "Line.SMT_53117889" phases=3 bus1="82359755002409.1.2.3" bus2="82359745002409.1.2.3" linecode="33-31M_3" length=0.012030000 units=km
New "Line.SMT_53117890" phases=3 bus1="82359745002409.1.2.3" bus2="82359775002409.1.2.3" linecode="33-31M_3" length=0.026061000 units=km
New "Line.SMT_53117891" phases=3 bus1="82359775002409.1.2.3" bus2="82359785002409.1.2.3" linecode="33-31M_3" length=0.028809000 units=km
New "Line.SMT_53117892" phases=3 bus1="82359795002409.1.2.3" bus2="82359805002409.1.2.3" linecode="29-31M_3" length=0.024732000 units=km
New "Line.SMT_53117893" phases=3 bus1="82359805002409.1.2.3" bus2="82360345002409.1.2.3" linecode="29-31M_3" length=0.025808000 units=km
New "Line.SMT_53117894" phases=3 bus1="82359785002409.1.2.3" bus2="82359795002409.1.2.3" linecode="33-31M_3" length=0.026527000 units=km
New "Line.SMT_53117895" phases=3 bus1="82359805002409.1.2.3" bus2="82359815002409.1.2.3" linecode="29-31M_3" length=0.023363000 units=km
New "Line.SMT_53117896" phases=3 bus1="82359825002409.1.2.3" bus2="82359805002409.1.2.3" linecode="29-31M_3" length=0.019854000 units=km
New "Line.SMT_53117897" phases=3 bus1="82359835002409.1.2.3" bus2="82359825002409.1.2.3" linecode="29-31M_3" length=0.037221000 units=km
New "Line.SMT_53117898" phases=3 bus1="82359845002409.1.2.3" bus2="82359835002409.1.2.3" linecode="29-31M_3" length=0.036022000 units=km
New "Line.SMT_53117899" phases=3 bus1="82359855002409.1.2.3" bus2="82359845002409.1.2.3" linecode="29-31M_3" length=0.036308000 units=km
New "Line.SMT_53117900" phases=3 bus1="82359865002409.1.2.3" bus2="82359855002409.1.2.3" linecode="29-31M_3" length=0.040552000 units=km
New "Line.SMT_53117901" phases=3 bus1="98026985002409.1.2.3" bus2="82359865002409.1.2.3" linecode="29-31M_3" length=0.016401000 units=km
New "Line.SMT_53117902" phases=3 bus1="82359885002409.1.2.3" bus2="82359875002409.1.2.3" linecode="29-31M_3" length=0.021519000 units=km
New "Line.SMT_53117903" phases=3 bus1="82360065002409.1.2.3" bus2="82360055002409.1.2.3" linecode="1-31M_3" length=0.041106000 units=km
New "Line.SMT_53117904" phases=3 bus1="82360075002409.1.2.3" bus2="82360065002409.1.2.3" linecode="1-31M_3" length=0.012313000 units=km
New "Line.SMT_53117905" phases=3 bus1="82360095002409.1.2.3" bus2="82359885002409.1.2.3" linecode="1-31M_3" length=0.027225000 units=km
New "Line.SMT_53117906" phases=3 bus1="82360105002409.1.2.3" bus2="82359885002409.1.2.3" linecode="1-31M_3" length=0.040241000 units=km
New "Line.SMT_53117907" phases=3 bus1="82360115002409.1.2.3" bus2="82360105002409.1.2.3" linecode="1-31M_3" length=0.032626000 units=km
New "Line.SMT_53117908" phases=3 bus1="82360125002409.1.2.3" bus2="82360115002409.1.2.3" linecode="1-31M_3" length=0.038045000 units=km
New "Line.SMT_53117910" phases=3 bus1="82359815002409.1.2.3" bus2="82360135002409.1.2.3" linecode="29-31M_3" length=0.042999000 units=km
New "Line.SMT_53117911" phases=3 bus1="82360155002409.1.2.3" bus2="82360135002409.1.2.3" linecode="29-31M_3" length=0.040452000 units=km
New "Line.SMT_53117912" phases=3 bus1="82360175002409.1.2.3" bus2="82360165002409.1.2.3" linecode="29-31M_3" length=0.026527000 units=km
New "Line.SMT_53117913" phases=3 bus1="82360165002409.1.2.3" bus2="82360155002409.1.2.3" linecode="29-31M_3" length=0.022979000 units=km
New "Line.SMT_53117914" phases=3 bus1="82359395002409.1.2.3" bus2="82360175002409.1.2.3" linecode="33-31M_3" length=0.015330000 units=km
New "Line.SMT_53117915" phases=3 bus1="82360185002409.1.2.3" bus2="82360175002409.1.2.3" linecode="33-31M_3" length=0.034288000 units=km
New "Line.SMT_53117916" phases=3 bus1="82360195002409.1.2.3" bus2="82360185002409.1.2.3" linecode="33-31M_3" length=0.039453000 units=km
New "Line.SMT_53117917" phases=3 bus1="82359635002409.1.2.3" bus2="82360195002409.1.2.3" linecode="33-31M_3" length=0.012482000 units=km
New "Line.SMT_53117918" phases=3 bus1="82360945002409.1.2.3" bus2="82360075002409.1.2.3" linecode="1-31M_3" length=0.042407000 units=km
New "Line.SMT_53117919" phases=3 bus1="82360955002409.1.2.3" bus2="82360945002409.1.2.3" linecode="1-31M_3" length=0.046425000 units=km
New "Line.SMT_53117920" phases=3 bus1="82360965002409.1.2.3" bus2="82360955002409.1.2.3" linecode="1-31M_3" length=0.030487000 units=km
New "Line.SMT_53117921" phases=3 bus1="82360975002409.1.2.3" bus2="82360965002409.1.2.3" linecode="1-31M_3" length=0.034741000 units=km
New "Line.SMT_53117922" phases=3 bus1="82360985002409.1.2.3" bus2="82360975002409.1.2.3" linecode="1-31M_3" length=0.038734000 units=km
New "Line.SMT_53117923" phases=3 bus1="94263365002409.1.2.3" bus2="82360985002409.1.2.3" linecode="1-31M_3" length=0.007701000 units=km
New "Line.SMT_53117924" phases=3 bus1="94458595002409.1.2.3" bus2="82360995002409.1.2.3" linecode="1-31M_3" length=0.009192000 units=km
New "Line.SMT_53117925" phases=3 bus1="82360995002409B.1.2.3" bus2="82358625002409.1.2.3" linecode="1-31M_3" length=0.055019000 units=km
New "Line.SMT_53117926" phases=3 bus1="82360065002409.1.2.3" bus2="82361035002409.1.2.3" linecode="33-31M_3" length=0.022222000 units=km
New "Line.SMT_53117927" phases=3 bus1="82361035002409B.1.2.3" bus2="82361045002409.1.2.3" linecode="33-31M_3" length=0.034457000 units=km
New "Line.SMT_53117928" phases=3 bus1="82361045002409.1.2.3" bus2="82361055002409.1.2.3" linecode="33-31M_3" length=0.006582000 units=km
New "Line.SMT_53117929" phases=3 bus1="82361045002409.1.2.3" bus2="82361065002409.1.2.3" linecode="33-31M_3" length=0.037715000 units=km
New "Line.SMT_53117930" phases=3 bus1="82361065002409.1.2.3" bus2="82360425002409.1.2.3" linecode="33-31M_3" length=0.034255000 units=km
New "Line.SMT_53117931" phases=3 bus1="82360425002409.1.2.3" bus2="82360435002409.1.2.3" linecode="33-31M_3" length=0.035225000 units=km
New "Line.SMT_53117932" phases=3 bus1="82360435002409.1.2.3" bus2="82360465002409.1.2.3" linecode="33-31M_3" length=0.026645000 units=km
New "Line.SMT_53117933" phases=3 bus1="82358775002409.1.2.3" bus2="82366795002409.1.2.3" linecode="1-31M_3" length=0.048882000 units=km
New "Line.SMT_53117934" phases=3 bus1="82360755002409.1.2.3" bus2="82360765002409.1.2.3" linecode="33-31M_3" length=0.029477000 units=km
New "Line.SMT_53117935" phases=3 bus1="82360765002409.1.2.3" bus2="82360775002409.1.2.3" linecode="33-31M_3" length=0.031145000 units=km
New "Line.SMT_53117936" phases=3 bus1="82360775002409.1.2.3" bus2="82360785002409.1.2.3" linecode="33-31M_3" length=0.029505000 units=km
New "Line.SMT_53117937" phases=3 bus1="82360785002409.1.2.3" bus2="82360795002409.1.2.3" linecode="33-31M_3" length=0.031145000 units=km
New "Line.SMT_53117938" phases=3 bus1="82360795002409.1.2.3" bus2="82360805002409.1.2.3" linecode="33-31M_3" length=0.031425000 units=km
New "Line.SMT_53117939" phases=3 bus1="82360805002409.1.2.3" bus2="82360815002409.1.2.3" linecode="33-31M_3" length=0.028583000 units=km
New "Line.SMT_53117940" phases=3 bus1="82360815002409.1.2.3" bus2="82360825002409.1.2.3" linecode="33-31M_3" length=0.032106000 units=km
New "Line.SMT_53117941" phases=3 bus1="82364105002409.1.2.3" bus2="82285775002409.1.2.3" linecode="1-31M_3" length=0.036612000 units=km
New "Line.SMT_53117942" phases=3 bus1="82320735002409.1.2.3" bus2="82364105002409B.1.2.3" linecode="33-31M_3" length=0.015874000 units=km
New "Line.SMT_53117943" phases=3 bus1="82363325002409.1.2.3" bus2="82364105002409.1.2.3" linecode="1-31M_3" length=0.034170000 units=km
New "Line.SMT_53117944" phases=3 bus1="82363325002409.1.2.3" bus2="82364115002409.1.2.3" linecode="1-31M_3" length=0.009448000 units=km
New "Line.SMT_53117945" phases=3 bus1="82283035002409B.1.2.3" bus2="82283025002409.1.2.3" linecode="1-31M_3" length=0.041267000 units=km
New "Line.SMT_53117946" phases=3 bus1="82360825002409.1.2.3" bus2="82283115002409B.1.2.3" linecode="33-31M_3" length=0.034086000 units=km
New "Line.SMT_53117947" phases=3 bus1="82283125002409.1.2.3" bus2="82283135002409.1.2.3" linecode="1-31M_3" length=0.045404000 units=km
New "Line.SMT_53117948" phases=3 bus1="82283115002409.1.2.3" bus2="82283125002409.1.2.3" linecode="1-31M_3" length=0.028276000 units=km
New "Line.SMT_53117949" phases=3 bus1="82283105002409.1.2.3" bus2="82283115002409.1.2.3" linecode="1-31M_3" length=0.032628000 units=km
New "Line.SMT_53117950" phases=3 bus1="82283095002409.1.2.3" bus2="82283105002409.1.2.3" linecode="1-31M_3" length=0.039004000 units=km
New "Line.SMT_53117951" phases=3 bus1="82283085002409.1.2.3" bus2="82283095002409.1.2.3" linecode="1-31M_3" length=0.040517000 units=km
New "Line.SMT_53117952" phases=3 bus1="82283075002409.1.2.3" bus2="82283085002409.1.2.3" linecode="1-31M_3" length=0.052073000 units=km
New "Line.SMT_53117953" phases=3 bus1="82283065002409.1.2.3" bus2="82283075002409.1.2.3" linecode="1-31M_3" length=0.046298000 units=km
New "Line.SMT_53117954" phases=3 bus1="82283055002409.1.2.3" bus2="82283065002409.1.2.3" linecode="1-31M_3" length=0.039820000 units=km
New "Line.SMT_53117955" phases=3 bus1="82283045002409.1.2.3" bus2="82283055002409.1.2.3" linecode="1-31M_3" length=0.026755000 units=km
New "Line.SMT_53117956" phases=3 bus1="82365855002409.1.2.3" bus2="82364035002409.1.2.3" linecode="33-31M_3" length=0.020388000 units=km
New "Line.SMT_53117957" phases=3 bus1="82365855002409.1.2.3" bus2="82365865002409.1.2.3" linecode="33-31M_3" length=0.004712000 units=km
New "Line.SMT_53117958" phases=3 bus1="82362135002409.1.2.3" bus2="82362145002409.1.2.3" linecode="29-31M_3" length=0.037628000 units=km
New "Line.SMT_53117959" phases=3 bus1="82362135002409.1.2.3" bus2="82362155002409.1.2.3" linecode="29-31M_3" length=0.040980000 units=km
New "Line.SMT_53117960" phases=3 bus1="82362155002409.1.2.3" bus2="82362385002409.1.2.3" linecode="29-31M_3" length=0.037607000 units=km
New "Line.SMT_53117964" phases=3 bus1="82362145002409.1.2.3" bus2="82362495002409.1.2.3" linecode="29-31M_3" length=0.020245000 units=km
New "Line.SMT_53117965" phases=3 bus1="82362495002409.1.2.3" bus2="82362505002409.1.2.3" linecode="29-31M_3" length=0.041930000 units=km
New "Line.SMT_53117966" phases=3 bus1="82362585002409.1.2.3" bus2="82362595002409.1.2.3" linecode="1-31M_3" length=0.040491000 units=km
New "Line.SMT_53117967" phases=3 bus1="82362595002409.1.2.3" bus2="82362605002409.1.2.3" linecode="1-31M_3" length=0.026030000 units=km
New "Line.SMT_53117968" phases=3 bus1="82362605002409.1.2.3" bus2="82362615002409.1.2.3" linecode="1-31M_3" length=0.036883000 units=km
New "Line.SMT_53117969" phases=3 bus1="82362615002409.1.2.3" bus2="82362625002409.1.2.3" linecode="1-31M_3" length=0.042659000 units=km
New "Line.SMT_53117970" phases=3 bus1="82362625002409.1.2.3" bus2="82362635002409.1.2.3" linecode="1-31M_3" length=0.041930000 units=km
New "Line.SMT_53117971" phases=3 bus1="82362505002409.1.2.3" bus2="82362735002409B.1.2.3" linecode="29-31M_3" length=0.032253000 units=km
New "Line.SMT_53117972" phases=3 bus1="82364225002409.1.2.3" bus2="82357185002409.1.2.3" linecode="33-31M_3" length=0.015781000 units=km
New "Line.SMT_53117973" phases=3 bus1="82357195002409.1.2.3" bus2="82364225002409.1.2.3" linecode="33-31M_3" length=0.016329000 units=km
New "Line.SMT_53117974" phases=3 bus1="82357205002409.1.2.3" bus2="82357195002409.1.2.3" linecode="33-31M_3" length=0.003486000 units=km
New "Line.SMT_53117975" phases=3 bus1="82364235002409.1.2.3" bus2="82357205002409.1.2.3" linecode="29-31M_3" length=0.030393000 units=km
New "Line.SMT_53117976" phases=3 bus1="82364415002409.1.2.3" bus2="82364235002409.1.2.3" linecode="29-31M_3" length=0.030568000 units=km
New "Line.SMT_53117977" phases=3 bus1="82365885002409.1.2.3" bus2="82365895002409.1.2.3" linecode="33-31M_3" length=0.040491000 units=km
New "Line.SMT_53117978" phases=3 bus1="82320735002409.1.2.3" bus2="82365885002409.1.2.3" linecode="33-31M_3" length=0.032538000 units=km
New "Line.SMT_53117979" phases=3 bus1="82365895002409.1.2.3" bus2="82365905002409.1.2.3" linecode="33-31M_3" length=0.039072000 units=km
New "Line.SMT_53117980" phases=3 bus1="82365905002409.1.2.3" bus2="82365915002409.1.2.3" linecode="33-31M_3" length=0.042275000 units=km
...
