modelo_bdgd2opendss/sub__5001462/5002409/SegmentosBT_2023056072_5002409_------1-----.dss
New "Line.SBT_53097565" phases=4 bus1="82222325458724.1.2.3.4" bus2="82222315458724.1.2.3.4" linecode="13-71B_4" length=0.038080000 units=km
New "Line.SBT_53097566" phases=4 bus1="82222335458724.1.2.3.4" bus2="82222325458724.1.2.3.4" linecode="13-71B_4" length=0.038647000 units=km
New "Line.SBT_53097572" phases=4 bus1="82222445458724.1.2.3.4" bus2="82222435458724.1.2.3.4" linecode="13-71B_4" length=0.036888000 units=km
New "Line.SBT_53097573" phases=4 bus1="82222455458724.1.2.3.4" bus2="82222445458724.1.2.3.4" linecode="13-71B_4" length=0.035139000 units=km
New "Line.SBT_53111270" phases=4 bus1="82312695342798.1.2.3.4" bus2="94583395342798.1.2.3.4" linecode="45-44B_4" length=0.018626000 units=km
New "Line.SBT_53118593" phases=4 bus1="82357295289689.1.2.3.4" bus2="82357285289689.1.2.3.4" linecode="9-71B_4" length=0.019359000 units=km
New "Line.SBT_53118594" phases=4 bus1="82357265289689.1.2.3.4" bus2="82357315289689.1.2.3.4" linecode="13-71B_4" length=0.038506000 units=km
New "Line.SBT_53118595" phases=4 bus1="82357315289689.1.2.3.4" bus2="82357325289689.1.2.3.4" linecode="13-71B_4" length=0.022219000 units=km
New "Line.SBT_53118596" phases=4 bus1="82357315289689.1.2.3.4" bus2="82357405289689.1.2.3.4" linecode="13-71B_4" length=0.044642000 units=km
New "Line.SBT_53118597" phases=4 bus1="82357405289689.1.2.3.4" bus2="82357415289689.1.2.3.4" linecode="13-71B_4" length=0.031583000 units=km
New "Line.SBT_53118598" phases=4 bus1="82357435289689.1.2.3.4" bus2="82357515289689.1.2.3.4" linecode="60-71B_4" length=0.022694000 units=km
New "Line.SBT_53118599" phases=4 bus1="82357515289689.1.2.3.4" bus2="82357525289689.1.2.3.4" linecode="60-71B_4" length=0.023070000 units=km
New "Line.SBT_53118600" phases=4 bus1="82357525289689.1.2.3.4" bus2="82357245289689.1.2.3.4" linecode="60-71B_4" length=0.024241000 units=km
New "Line.SBT_53118601" phases=4 bus1="82357325289690.1.2.3.4" bus2="82357335289690.1.2.3.4" linecode="11-71B_4" length=0.022229000 units=km
New "Line.SBT_53118602" phases=4 bus1="82357335289690.1.2.3.4" bus2="82357345289690.1.2.3.4" linecode="60-71B_4" length=0.051586000 units=km
New "Line.SBT_53118604" phases=4 bus1="82357365289690.1.2.3.4" bus2="82357345289690.1.2.3.4" linecode="13-71B_4" length=0.046647000 units=km
New "Line.SBT_53118606" phases=4 bus1="82357385289690.1.2.3.4" bus2="82357375289690.1.2.3.4" linecode="13-71B_4" length=0.034758000 units=km
New "Line.SBT_53118607" phases=4 bus1="82357395289690.1.2.3.4" bus2="82357385289690.1.2.3.4" linecode="13-71B_4" length=0.036148000 units=km
New "Line.SBT_53118609" phases=4 bus1="82357635289690.1.2.3.4" bus2="82357625289690.1.2.3.4" linecode="13-71B_4" length=0.033386000 units=km
New "Line.SBT_53118611" phases=4 bus1="82357655289690.1.2.3.4" bus2="82357645289690.1.2.3.4" linecode="60-71B_4" length=0.019382000 units=km
New "Line.SBT_53118614" phases=4 bus1="82357465289691.1.2.3.4" bus2="82357445289691.1.2.3.4" linecode="13-71B_4" length=0.032006000 units=km
New "Line.SBT_53118615" phases=4 bus1="82357475289691.1.2.3.4" bus2="82357465289691.1.2.3.4" linecode="13-71B_4" length=0.023784000 units=km
New "Line.SBT_53118616" phases=4 bus1="82357485289691.1.2.3.4" bus2="82357475289691.1.2.3.4" linecode="60-71B_4" length=0.022979000 units=km
New "Line.SBT_53118617" phases=4 bus1="82357495289691.1.2.3.4" bus2="82357475289691.1.2.3.4" linecode="13-71B_4" length=0.052630000 units=km
New "Line.SBT_53118618" phases=4 bus1="82357505289691.1.2.3.4" bus2="82357495289691.1.2.3.4" linecode="60-71B_4" length=0.031229000 units=km
New "Line.SBT_53118619" phases=4 bus1="82357455289691.1.2.3.4" bus2="82357695289691.1.2.3.4" linecode="60-71B_4" length=0.039511000 units=km
New "Line.SBT_53118620" phases=4 bus1="82357695289691.1.2.3.4" bus2="82357705289691.1.2.3.4" linecode="60-71B_4" length=0.030506000 units=km
New "Line.SBT_53118621" phases=4 bus1="82357705289691.1.2.3.4" bus2="82357715289691.1.2.3.4" linecode="60-71B_4" length=0.028282000 units=km
New "Line.SBT_53118623" phases=4 bus1="80434945289691.1.2.3.4" bus2="82357725289691.1.2.3.4" linecode="60-71B_4" length=0.026745000 units=km
New "Line.SBT_53118624" phases=4 bus1="82357725289691.1.2.3.4" bus2="82357735289691.1.2.3.4" linecode="60-71B_4" length=0.027900000 units=km
New "Line.SBT_53118626" phases=4 bus1="82358235289692.1.2.3.4" bus2="82358425289692.1.2.3.4" linecode="60-71B_4" length=0.030683000 units=km
New "Line.SBT_53118627" phases=4 bus1="82358425289692.1.2.3.4" bus2="82358435289692.1.2.3.4" linecode="60-71B_4" length=0.014461000 units=km
New "Line.SBT_53118628" phases=4 bus1="82358435289692.1.2.3.4" bus2="82358455289692.1.2.3.4" linecode="60-71B_4" length=0.012271000 units=km
New "Line.SBT_53118629" phases=4 bus1="82358445289692.1.2.3.4" bus2="82358455289692.1.2.3.4" linecode="60-71B_4" length=0.012574000 units=km
New "Line.SBT_53118630" phases=4 bus1="82358455289692.1.2.3.4" bus2="82358465289692.1.2.3.4" linecode="60-71B_4" length=0.035802000 units=km
New "Line.SBT_53118631" phases=4 bus1="82358455289692.1.2.3.4" bus2="82358475289692.1.2.3.4" linecode="60-71B_4" length=0.039242000 units=km
New "Line.SBT_53118634" phases=4 bus1="82358495289692.1.2.3.4" bus2="82358485289692.1.2.3.4" linecode="60-71B_4" length=0.025808000 units=km
New "Line.SBT_53118635" phases=4 bus1="82357935289692.1.2.3.4" bus2="82357945289692.1.2.3.4" linecode="60-71B_4" length=0.026763000 units=km
New "Line.SBT_53118637" phases=4 bus1="80434955289692.1.2.3.4" bus2="82357935289692.1.2.3.4" linecode="60-71B_4" length=0.027685000 units=km
New "Line.SBT_53118639" phases=3 bus1="82358115289692.1.2.4" bus2="82358085289692.1.2.4" linecode="60-71B_3" length=0.025215000 units=km
New "Line.SBT_53118640" phases=3 bus1="82358125289692.1.2.4" bus2="82358115289692.1.2.4" linecode="60-71B_3" length=0.030506000 units=km
New "Line.SBT_53118644" phases=4 bus1="82357435289689.1.2.3.4" bus2="82358515289689.1.2.3.4" linecode="60-71B_4" length=0.019536000 units=km
New "Line.SBT_53118645" phases=4 bus1="82358515289689.1.2.3.4" bus2="82357415289689.1.2.3.4" linecode="60-71B_4" length=0.044493000 units=km
New "Line.SBT_53118649" phases=4 bus1="82357245289689.1.2.3.4" bus2="82357255289689.1.2.3.4" linecode="13-71B_4" length=0.017858000 units=km
New "Line.SBT_53118650" phases=4 bus1="82357255289689.1.2.3.4" bus2="82357265289689.1.2.3.4" linecode="13-71B_4" length=0.025564000 units=km
New "Line.SBT_53118651" phases=4 bus1="82357265289689.1.2.3.4" bus2="82357275289689.1.2.3.4" linecode="60-71B_4" length=0.017413000 units=km
New "Line.SBT_53118652" phases=4 bus1="82357275289689.1.2.3.4" bus2="82357295289689.1.2.3.4" linecode="60-71B_4" length=0.034053000 units=km
New "Line.SBT_53118656" phases=4 bus1="82358145289692.1.2.3.4" bus2="82358165289692.1.2.3.4" linecode="60-71B_4" length=0.038933000 units=km
New "Line.SBT_53118657" phases=4 bus1="82358175289692.1.2.3.4" bus2="82358165289692.1.2.3.4" linecode="60-71B_4" length=0.025287000 units=km
New "Line.SBT_53118660" phases=4 bus1="82358195289692.1.2.3.4" bus2="82358155289692.1.2.3.4" linecode="13-71B_4" length=0.037221000 units=km
New "Line.SBT_53118661" phases=4 bus1="82358215289692.1.2.3.4" bus2="82358195289692.1.2.3.4" linecode="13-71B_4" length=0.039192000 units=km
New "Line.SBT_53118662" phases=4 bus1="82358205289692.1.2.3.4" bus2="82358215289692.1.2.3.4" linecode="13-71B_4" length=0.008432000 units=km
New "Line.SBT_53118663" phases=4 bus1="82357955289692.1.2.3.4" bus2="82358205289692.1.2.3.4" linecode="13-71B_4" length=0.034591000 units=km
New "Line.SBT_53118665" phases=4 bus1="82360365289697.1.2.3.4" bus2="82360355289697.1.2.3.4" linecode="13-71B_4" length=0.038870000 units=km
New "Line.SBT_53118666" phases=4 bus1="82360375289697.1.2.3.4" bus2="82360365289697.1.2.3.4" linecode="13-71B_4" length=0.042556000 units=km
New "Line.SBT_53118667" phases=4 bus1="82360385289697.1.2.3.4" bus2="82360375289697.1.2.3.4" linecode="13-71B_4" length=0.025011000 units=km
New "Line.SBT_53118668" phases=4 bus1="82359785289697.1.2.3.4" bus2="82359775289697.1.2.3.4" linecode="60-71B_4" length=0.025741000 units=km
New "Line.SBT_53118669" phases=4 bus1="82359805289697.1.2.3.4" bus2="82359795289697.1.2.3.4" linecode="60-71B_4" length=0.024732000 units=km
New "Line.SBT_53118673" phases=4 bus1="82359805289697.1.2.3.4" bus2="82359825289697.1.2.3.4" linecode="13-71B_4" length=0.019854000 units=km
New "Line.SBT_53118674" phases=4 bus1="82359825289697.1.2.3.4" bus2="82359835289697.1.2.3.4" linecode="60-71B_4" length=0.037221000 units=km
New "Line.SBT_53118677" phases=4 bus1="82359105289698.1.2.3.4" bus2="82359125289698.1.2.3.4" linecode="60-71B_4" length=0.031533000 units=km
New "Line.SBT_53118678" phases=4 bus1="82360395289698.1.2.3.4" bus2="82360385289698.1.2.3.4" linecode="13-71B_4" length=0.028689000 units=km
New "Line.SBT_53118679" phases=4 bus1="82360405289698.1.2.3.4" bus2="82360395289698.1.2.3.4" linecode="13-71B_4" length=0.009641000 units=km
New "Line.SBT_53118680" phases=4 bus1="82360395289698.1.2.3.4" bus2="82360415289698.1.2.3.4" linecode="13-71B_4" length=0.022965000 units=km
New "Line.SBT_53118682" phases=4 bus1="82359125289698.1.2.3.4" bus2="82359135289698.1.2.3.4" linecode="60-71B_4" length=0.027816000 units=km
New "Line.SBT_53118684" phases=4 bus1="82359155289698.1.2.3.4" bus2="82359145289698.1.2.3.4" linecode="13-71B_4" length=0.036869000 units=km
...