modelo_bdgd2opendss/sub__5001462/5002409/RamaisBT_2023056072_5002409_------1-----.dss
New "Line.RBT_10005537779" phases=2 bus1="82369745289756.1.4" bus2="10005537779.1.4" linecode="CI-06_2" length=0.015100000 units=km
New "Line.RBT_10012232511" phases=2 bus1="82376515289753.1.4" bus2="10012232511.1.4" linecode="127-71X_2" length=0.015100000 units=km
New "Line.RBT_10008521733" phases=2 bus1="82370885289787.2.4" bus2="10008521733.2.4" linecode="107-42_2" length=0.015100000 units=km
New "Line.RBT_10000534194" phases=2 bus1="82370835289787.1.4" bus2="10000534194.1.4" linecode="CI-06_2" length=0.015100000 units=km
New "Line.RBT_10005057610" phases=2 bus1="82365665289730.1.4" bus2="10005057610.1.4" linecode="107-42_2" length=0.015100000 units=km
New "Line.RBT_10001469388" phases=2 bus1="82383135289767.1.4" bus2="10001469388.1.4" linecode="CI-06_2" length=0.015100000 units=km
New "Line.RBT_10002870264" phases=2 bus1="82359865289705.3.4" bus2="10002870264.3.4" linecode="CI-06_2" length=0.015100000 units=km
New "Line.RBT_10013900534" phases=2 bus1="82373565289753.1.4" bus2="10013900534.1.4" linecode="128-42X_2" length=0.015100000 units=km
New "Line.RBT_10018767905" phases=2 bus1="82358125289692.3.4" bus2="10018767905.3.4" linecode="CI-06_2" length=0.015100000 units=km
New "Line.RBT_10000218012" phases=2 bus1="82384135289798.3.4" bus2="10000218012.3.4" linecode="128-42X_2" length=0.015100000 units=km
New "Line.RBT_10005088362" phases=2 bus1="82376715289753.3.4" bus2="10005088362.3.4" linecode="107-42_2" length=0.015100000 units=km
New "Line.RBT_10001162878" phases=2 bus1="82372415289747.1.4" bus2="10001162878.1.4" linecode="CI-06_2" length=0.015100000 units=km
New "Line.RBT_10008638762" phases=2 bus1="82361695289787.2.4" bus2="10008638762.2.4" linecode="127-71X_2" length=0.015100000 units=km
New "Line.RBT_10013631916" phases=2 bus1="82376595289753.1.4" bus2="10013631916.1.4" linecode="128-42X_2" length=0.015100000 units=km
New "Line.RBT_10002489307" phases=2 bus1="82357465289691.3.4" bus2="10002489307.3.4" linecode="127-71X_2" length=0.015100000 units=km
New "Line.RBT_10005445300" phases=2 bus1="82366705289724.1.4" bus2="10005445300.1.4" linecode="127-71X_2" length=0.015100000 units=km
New "Line.RBT_10002512074" phases=2 bus1="82370995289791.2.4" bus2="10002512074.2.4" linecode="CI-06_2" length=0.015100000 units=km
New "Line.RBT_10008921103" phases=2 bus1="82369905289756.1.4" bus2="10008921103.1.4" linecode="CI-06_2" length=0.015100000 units=km
New "Line.RBT_10011421582" phases=2 bus1="82381315289795.3.4" bus2="10011421582.3.4" linecode="CI-06_2" length=0.015100000 units=km
New "Line.RBT_10001441157" phases=2 bus1="82380055289775.3.4" bus2="10001441157.3.4" linecode="127-71X_2" length=0.015100000 units=km
New "Line.RBT_10005351250" phases=2 bus1="82381835289780.2.4" bus2="10005351250.2.4" linecode="CI-06_2" length=0.015100000 units=km
New "Line.RBT_10012285038" phases=2 bus1="82383125289767.2.4" bus2="10012285038.2.4" linecode="107-42X_2" length=0.015100000 units=km
New "Line.RBT_10006936901" phases=2 bus1="82381265289741.1.4" bus2="10006936901.1.4" linecode="CI-06_2" length=0.015100000 units=km
New "Line.RBT_10003167753" phases=2 bus1="82357455289691.2.4" bus2="10003167753.2.4" linecode="CI-06_2" length=0.015100000 units=km
New "Line.RBT_10012588" phases=2 bus1="82371935289791.3.4" bus2="10012588.3.4" linecode="107-42_2" length=0.015100000 units=km
New "Line.RBT_10000391253" phases=2 bus1="82379695289751.2.4" bus2="10000391253.2.4" linecode="107-42X_2" length=0.015100000 units=km
New "Line.RBT_10008791463" phases=2 bus1="82368655289756.3.4" bus2="10008791463.3.4" linecode="128-42X_2" length=0.015100000 units=km
New "Line.RBT_10012175127" phases=2 bus1="82377995289795.2.4" bus2="10012175127.2.4" linecode="CI-06_2" length=0.015100000 units=km
New "Line.RBT_10002439938" phases=2 bus1="82381835289780.1.4" bus2="10002439938.1.4" linecode="CI-06_2" length=0.015100000 units=km
New "Line.RBT_10017907150" phases=2 bus1="82365695289730.2.4" bus2="10017907150.2.4" linecode="128-42X_2" length=0.015100000 units=km
New "Line.RBT_10002657110" phases=2 bus1="82376865289794.2.4" bus2="10002657110.2.4" linecode="107-42_2" length=0.015100000 units=km
New "Line.RBT_10007514407" phases=2 bus1="82381695289780.3.4" bus2="10007514407.3.4" linecode="CI-06_2" length=0.015100000 units=km
New "Line.RBT_10010697533" phases=2 bus1="82357465289691.1.4" bus2="10010697533.1.4" linecode="107-42X_2" length=0.015100000 units=km
New "Line.RBT_10007153986" phases=4 bus1="82358645289705.1.2.3.4" bus2="10007153986.1.2.3.4" linecode="129-71_4" length=0.015100000 units=km
New "Line.RBT_10004330160" phases=2 bus1="82372725289751.2.4" bus2="10004330160.2.4" linecode="127-71X_2" length=0.015100000 units=km
New "Line.RBT_10015846197" phases=2 bus1="82365935289731.1.4" bus2="10015846197.1.4" linecode="107-42_2" length=0.015100000 units=km
New "Line.RBT_10015776180" phases=2 bus1="82369815289756.1.4" bus2="10015776180.1.4" linecode="CI-06_2" length=0.015100000 units=km
...